resultados/_temp_alt5_1p20/LineSummary.csv
line,maxCurrentA,normAmps,maxLoadingPct,meanLoadingPct,overloadHours
rbt_1607347,93.19431633131846,124.95,74.58528717992674,25.747135691628923,0
sbt_7584,93.19432642069077,163.8,56.895193175024886,19.64044483852238,0
sbt_22840,93.19432180023365,163.8,56.895190354232994,19.640444763129867,0
rbt_630758,30.832489912444228,76.65,40.22503576313663,17.811556174398213,0
rbt_637576,24.665719440462837,61.95,39.81552774893113,14.765450918019745,0
rbt_632607,49.006200940360564,124.95,39.22064901189321,18.461770236776342,0
rbt_1130761,30.42819233051651,90.3,33.6967799894978,15.859266069194717,0
rbt_606147,25.292424936433367,76.65,32.99729280682761,12.486866354461498,0
rbt_605836,25.829499443042465,90.3,28.604096836148912,13.472166104607838,0
rbt_637360,17.661410605708703,61.95,28.50913737806086,13.394196582315672,0
rbt_637918,17.623867605923913,61.95,28.448535279941744,11.429938866756814,0
rbt_626476,15.259793383045418,61.95,24.632434839459915,11.590566688280292,0
rbt_1607350,21.935760281224358,90.3,24.292093334689213,8.845732034546872,0
rbt_606126,13.522538864959747,61.95,21.82814990308272,7.848739372331761,0
rbt_3405844,18.94162012909628,90.3,20.97632350951969,7.268761727781224,0
rbt_1633671,12.992212433974274,61.95,20.97209432441368,10.40647845271736,0
rbt_1627323,15.01890519423868,76.65,19.59413593507982,9.219301599438086,0
rbt_606143,14.824943541717003,76.65,19.341087464731903,6.891663823095591,0
sbt_34378,24.656761049750195,128.1,19.24805702556612,9.445167618761095,0
sbt_34379,24.579793563354286,128.1,19.18797311737259,9.309573117466604,0
rbt_637397,11.714906339102011,61.95,18.910260434385812,8.888059442220225,0
rbt_635862,10.774434562092488,61.95,17.39214618578287,5.997585801761307,0
rbt_3435739,13.115196857747895,76.65,17.110498183624127,8.495358477919241,0
rbt_605816,10.170574018637051,61.95,16.417391474797498,6.288691534895729,0
smt_29422,26.143993522311394,163.8,15.96092400629511,9.778682125606268,0
smt_19119,26.14139960905537,163.8,15.959340420668722,9.779486728487614,0
smt_17184,26.140218606783648,163.8,15.958619418060835,9.778974011831847,0
sbt_24791,25.292446203286513,163.8,15.441053848160264,5.843213741949078,0
sbt_3174,25.292437341701245,163.8,15.441048438157045,5.843215352645611,0
rbt_609688,11.16467901398801,76.65,14.565791277218537,5.3848869117055145,0
rbt_1638954,8.578484786730758,61.95,13.847433069783305,6.5093864063105435,0
rbt_1607265,12.050358106206405,90.3,13.34480410432603,6.2808284248968045,0
rbt_606139,9.29729531123828,76.65,12.129543785046678,4.399183916945786,0
sbt_9361,25.829499525120646,216.3,11.94151619284357,5.624302329683686,0
rbt_623004,7.222613790643951,61.95,11.658779323073366,4.6384918670304724,0
rbt_606121,6.961822182654946,61.95,11.237808204447047,5.280206695390935,0
sbt_11363,18.0138932868385,163.8,10.997492849107752,4.169925877724452,0
rbt_1605991,6.657592077745351,61.95,10.74671844672373,5.052746862413596,0
rbt_1607280,6.604935440400875,61.95,10.661719839226594,5.0106867737366985,0
sbt_34393,13.288401619398432,128.1,10.373459499920711,6.820009757284566,0
rbt_606114,9.030053307734356,90.3,10.000059034035832,4.700675829441143,0
rbt_627337,8.789999720848034,90.3,9.734218959964599,4.577722449833723,0
rbt_1621994,8.623770601056352,90.3,9.5501335559871,4.4881584237314485,0
rbt_626678,8.425015451929536,90.3,9.330028185968478,4.388031221068964,0
rbt_635543,5.769887812808605,61.95,9.313781780159168,3.784888352812079,0
rbt_606150,5.734882459842543,61.95,9.257275964233322,4.348998590202361,0
rbt_1607272,8.253816608674736,90.3,9.140439212264381,4.301160716732857,0
smt_34713,26.127125606137362,286.65,9.114643504670282,5.584755574064246,0
smt_34700,26.12697199143635,286.65,9.114589915030995,5.58471788407637,0
smt_34701,26.126608100435686,286.65,9.114462968929248,5.5846286203931195,0
smt_34715,26.126296912507126,286.65,9.114354408689037,5.58455230563711,0
smt_34702,26.125988684145998,286.65,9.114246880916099,5.584476735465988,0
smt_34703,26.125566466408134,286.65,9.114099587095112,5.5843732482307304,0
smt_34704,26.12505887259173,286.65,9.11392250918951,5.5842488814054105,0
smt_34716,26.124741613093597,286.65,9.11381183083677,5.584171174652805,0
smt_34705,26.124422624696034,286.65,9.11370054934451,5.584093064372309,0
smt_34717,26.12404251108842,286.65,9.11356794386479,5.584000012575742,0
smt_34706,26.123657635900024,286.65,9.113433677271944,5.583905824168279,0
smt_34707,26.123204460593104,286.65,9.113275583671063,5.583794958346413,0
smt_34708,26.122782219131594,286.65,9.113128281573903,5.583691696627388,0
smt_34709,26.12223729524497,286.65,9.112938180793643,5.583558484030604,0
smt_34718,26.121933722609526,286.65,9.112832277205488,5.583484297703664,0
smt_34710,26.121636844710718,286.65,9.112728709126364,5.583411764957378,0
smt_34719,26.12132633455107,286.65,9.112620385330917,5.583335920137777,0
smt_34711,26.121016819021015,286.65,9.112512408519455,5.583260337129675,0
smt_34720,26.12066390562725,286.65,9.112389292038113,5.5831741794625716,0
smt_34712,26.12033831726024,286.65,9.112275708097068,5.583094714446428,0
smt_34721,26.120104682519774,286.65,9.112194202867531,5.583037705737454,0
smt_34714,26.1200950772451,286.65,9.112190851995502,5.583035361828841,0
rbt_623007,5.640051202214413,61.95,9.104198873631013,4.277694319911899,0
sbt_22748,19.52120584176842,216.3,9.025060490877678,4.246959084657349,0
sbt_7427,19.52119769148352,216.3,9.02505672283103,4.246955181126515,0
sbt_34383,11.547855122468532,128.1,9.014719065158886,5.3108901274292295,0
sbt_34392,11.547852003741161,128.1,9.014716630555162,5.652225517896251,0
sbt_34384,11.532946981632525,128.1,9.003081172234603,4.349208783381406,0
rbt_1630759,6.825078721004635,76.65,8.904212290938858,4.188703037002673,0
rbt_606122,5.512200618017037,61.95,8.897821820850744,4.182355790149585,0
rbt_1229546,8.00081611852751,90.3,8.860261482311751,4.167115412062154,0
rbt_1638606,5.45853220577206,61.95,8.811190001246262,4.143330374935178,0
rbt_605905,7.808933199916571,90.3,8.647766555832305,4.065422459869033,0
rbt_1607283,7.730368156173514,90.3,8.560762077711532,4.027547570422182,0
smt_31417,27.90014173536507,327.6,8.51652678124697,5.2421292628923775,0
smt_31416,27.900093685101506,327.6,8.516512113889348,5.242118939505295,0
smt_31411,27.900075372133323,327.6,8.51650652385022,5.242115005674237,0
smt_31412,27.900054650763003,327.6,8.516500198645605,5.2421105539370725,0
smt_31413,27.8999317796444,327.6,8.516462692199145,5.242084158651783,0
smt_31414,27.899839442941257,327.6,8.516434506392324,5.2420643244316,0
smt_31415,27.89960546858708,327.6,8.51636308564929,5.242014071782129,0
smt_4387,27.899220690550806,327.6,8.516245632036265,5.241931448319742,0
smt_4863,27.89877670929505,327.6,8.516110106622419,5.241836140838558,0
smt_4693,27.898404224490235,327.6,8.51599640552205,5.2417562048695485,0
smt_17964,27.89817802716708,327.6,8.51592735872011,5.233017869377584,0
smt_4591,27.898063812372893,327.6,8.515892494619319,5.241683170709095,0
smt_6826,27.89771514842371,327.6,8.515786064842402,5.23291801348915,0
smt_4627,27.897702546862266,327.6,8.515782218211925,5.241605682265379,0
smt_4527,27.89741357864029,327.6,8.515694010573958,5.241543715671531,0
smt_7012,27.89718081647251,327.6,8.515622959851193,5.2328027848548935,0
smt_23134,27.896943804156844,327.6,8.515550611769488,5.241443004603252,0
smt_22791,27.896701985469164,327.6,8.51547679654126,5.232699562923764,0
smt_18545,27.896522590021586,327.6,8.515422036026123,5.24135273325789,0
smt_7020,27.896143001741418,327.6,8.515306166587735,5.232579107792246,0
smt_10381,27.896076316510328,327.6,8.515285810900588,5.2412571215127075,0
smt_18806,27.895850864117303,327.6,8.515216991488797,5.241208831291503,0
smt_24122,27.89577748748789,327.6,8.515194593250271,5.241193116868999,0
smt_6842,27.895712870689863,327.6,8.515174868952949,5.2324864523483186,0
smt_6830,27.895060319734487,327.6,8.514975677574629,5.232345940183387,0
smt_31407,27.894275436115006,327.6,8.514736091610196,5.2321770213451115,0
smt_29390,27.89390390834103,327.6,8.51462268264378,5.232187286385402,0
smt_31408,27.893794739694794,327.6,8.514589358881194,5.240583484445717,0
smt_17776,27.89327310203658,327.6,8.514430128826794,5.2320504087186475,0
smt_10747,27.892631164177054,327.6,8.514234177099222,5.231911179625236,0
smt_18202,27.89207368004969,327.6,8.514064004899174,5.2317903199795195,0
smt_17794,27.891556340025478,327.6,8.513906086698864,5.231678206907407,0
smt_29420,27.891236671849974,327.6,8.513808507890712,5.231608952337559,0
smt_22739,27.891049853714073,327.6,8.513751481597701,5.231568486531747,0
smt_17795,27.890433850021203,327.6,8.513563446282419,5.231435095491947,0
smt_29389,27.889746594905198,327.6,8.513353661448471,5.231286345564553,0
smt_19163,27.889154375726903,327.6,8.513172886363524,5.231158224572041,0
smt_17961,27.888776915191674,327.6,8.513057666419924,5.231076593190282,0
smt_29388,27.888341569146437,327.6,8.512924776906726,5.230982470901974,0
smt_17962,27.887806489268797,327.6,8.512761443610744,5.230866826636402,0
rbt_1107340,7.401268591874925,90.3,8.19631073297334,3.857321158696207,0
rbt_1626486,7.400752486268669,90.3,8.19573918745146,3.8514793651027994,0
rbt_605822,7.400526321221787,90.3,8.195488727820363,3.857103349602301,0
rbt_1607287,7.393959904637931,90.3,8.18821694865773,3.8517683647477488,0
smt_6447,26.205877593152124,327.6,7.99935213466182,4.903278306428151,0
smt_6627,26.205484703680717,327.6,7.999232205030743,4.903195307694383,0
smt_24630,26.2048583129008,327.6,7.9990409990539675,4.903063035744412,0
smt_24629,26.204471794656538,327.6,7.998923014241923,4.902981449893275,0
smt_24628,26.203956455354408,327.6,7.998765706762639,4.902872712267231,0
smt_24627,26.203573836525827,327.6,7.99864891224842,4.902792008164556,0
smt_6957,26.203215897407702,327.6,7.998539651223352,4.902716532251695,0
smt_6431,26.20277042276864,327.6,7.998403669953796,4.902622628864277,0
smt_24626,26.202399687599673,327.6,7.998290502930303,4.902544505897704,0
smt_12228,26.20199658500143,327.6,7.998167455739143,4.902459588895993,0
rbt_606132,4.945634283742003,61.95,7.983267608945929,3.7509627558532155,0
smt_6510,26.15134595977372,327.6,7.982706336927264,4.8909004459920995,0
smt_19223,26.15080283891413,327.6,7.982540549119086,4.890784938012248,0
smt_22843,26.15034052799047,327.6,7.982399428568519,4.890686656115808,0
smt_6737,26.149937275750062,327.6,7.982276335699042,4.890600959367189,0
smt_24665,26.149411777149876,327.6,7.982115927090925,4.890489325395181,0
smt_24635,26.148868865101,327.6,7.981950203022283,4.890374041963455,0
smt_24637,26.14830707087556,327.6,7.981778715163479,4.890254802245532,0
smt_24636,26.147757660652356,327.6,7.981611007525139,4.890138243364731,0
smt_19174,26.147257416802038,327.6,7.98145830793713,4.890032160275674,0
smt_6686,26.14666725464295,327.6,7.98127816075792,4.889907064037737,0
smt_19173,26.145674769308336,327.6,7.9809752043065725,4.889696822258963,0
smt_19172,26.145339379761353,327.6,7.98087282654498,4.889625813628435,0
smt_6544,26.144973399772624,327.6,7.980761111041704,4.88954835041037,0
smt_6535,26.14443243162956,327.6,7.980595980350904,4.889433891263734,0
smt_24634,26.14324976660144,327.6,7.98023497149006,4.889183834887038,0
smt_24633,26.142827702733992,327.6,7.980106136365688,4.88909465367059,0
smt_24632,26.142373662159702,327.6,7.9799675403417885,4.888998749947537,0
smt_1873,26.14192677281053,327.6,7.97983112723154,4.888904391220053,0
smt_24631,26.14152632389873,327.6,7.979708890078976,4.888819867236055,0
smt_6527,26.14111027848246,327.6,7.979581892088664,4.888732080336764,0
smt_24511,26.140870326789866,327.6,7.9795086467612535,4.889628443776682,0
smt_29446,26.140204371496296,327.6,7.979305363704607,4.889483917088726,0
smt_32671,26.139765144796456,327.6,7.979171289620407,4.889388637705848,0
smt_6389,26.13928028923147,327.6,7.9790232873111915,4.889283499009809,0
smt_24510,26.13926539804792,327.6,7.97901874177287,4.889280270579369,0
smt_24509,26.13874988243561,327.6,7.97886138047485,4.889168529687743,0
smt_24508,26.138297982936145,327.6,7.978723438014695,4.889070615840996,0
smt_6426,26.137890589454095,327.6,7.978599081029943,4.8889823755407535,0
smt_6420,26.137475221245836,327.6,7.978472289757581,4.88889243756319,0
smt_6140,26.137026360540123,327.6,7.9783352748901475,4.88879528122468,0
smt_6653,26.136598207826264,327.6,7.978204581143547,4.888702639690704,0
smt_6650,26.13617632077959,327.6,7.9780757999937695,4.888611384995758,0
smt_29445,26.135762462786122,327.6,7.977949469714933,4.888521896912856,0
smt_24507,26.135336700225004,327.6,7.977819505563187,4.888429865738776,0
smt_24506,26.134912372228918,327.6,7.977689979312856,4.888338175887131,0
smt_24505,26.134474475816656,327.6,7.977556311299345,4.888243586836174,0
smt_24459,26.134098733282073,327.6,7.977441615775968,4.888162450026488,0
smt_24458,26.133646134327602,327.6,7.97730345980696,4.8880647495008365,0
smt_24457,26.13319068674851,327.6,7.977164434294417,4.887966469863724,0
smt_24456,26.132771870794006,327.6,7.977036590596461,4.887876126578129,0
smt_24455,26.132341900572296,327.6,7.976905342055035,4.88778340878761,0
smt_24454,26.131929380655986,327.6,7.97677942022466,4.8876944840331635,0
smt_19165,26.131473873814336,327.6,7.976640376622202,4.887596327035503,0
smt_17113,26.13099758525538,327.6,7.976494989394194,4.887493730206557,0
smt_6993,26.129952570742617,327.6,7.976175998395181,4.887268762321401,0
smt_24453,26.129318435130934,327.6,7.975982428306145,4.887132339423309,0
smt_24452,26.128827592579494,327.6,7.9758325984674885,4.887026791192832,0
smt_24451,26.128397384729407,327.6,7.975701277389928,4.8869343157689,0
smt_24450,26.127990986334574,327.6,7.9755772241558525,4.886846987677024,0
smt_6394,26.127546365645404,327.6,7.975441503554763,4.88675147898195,0
smt_24668,26.120083980073755,327.6,7.973163608081121,4.885153572038377,0
smt_29393,26.11990977108409,327.6,7.973110430733849,4.8851163834920355,0
smt_19218,26.118445502960842,327.6,7.9726634624422585,4.88480401143955,0
smt_6502,26.11793591722692,327.6,7.972507911241427,4.884695388136944,0
smt_24667,26.11766960442291,327.6,7.972426619176712,4.884638638662337,0
smt_6683,26.116953534811714,327.6,7.972208038709313,4.884486109516543,0
smt_19220,26.11637247150136,327.6,7.972030668956459,4.884362402736833,0
smt_22844,26.115968345022154,327.6,7.971907309225321,4.884276399527259,0
smt_6687,26.11552426482368,327.6,7.971771753609182,4.884181926060479,0
smt_24666,26.11519132573314,327.6,7.9716701238501635,4.884111118972419,0
rbt_623433,7.160322872082044,90.3,7.929482693335597,3.7311783285127826,0
rbt_626698,7.112834204706927,90.3,7.876892806984416,3.7022938729742285,0
rbt_1607252,5.992443076394297,76.65,7.817929649568554,3.6768156541531716,0
rbt_637356,4.684030850566628,61.95,7.560986038041367,3.55434614699994,0
rbt_631391,6.741422780645423,90.3,7.465584474690392,5.654115075323676,0
rbt_605855,5.558212347590424,76.65,7.251418587854435,3.411092563573536,0
rbt_1607255,6.492776635716948,90.3,7.190228832466166,3.380110542606374,0
rbt_636933,5.405166216443559,76.65,7.051749793142282,3.3182930261156525,0
rbt_605910,4.246706986281491,61.95,6.855055667928153,3.220175248639571,0
rbt_627343,6.148309173195529,90.3,6.808758774302912,3.1994782237293617,0
rbt_1607304,4.131419332982635,61.95,6.6689577610696285,3.131919546708703,0
rbt_1607305,5.835266694812878,90.3,6.462089363026443,3.0382356986202033,0
rbt_1607285,3.9651754108899264,61.95,6.400605990137088,3.00516182602318,0
rbt_606103,4.816521458620047,76.65,6.283785334142265,2.9539222160672267,0
rbt_3405846,4.800542503339736,76.65,6.262938686679369,2.9452480302271624,0
rbt_606109,3.8242459174203742,61.95,6.173116896562347,2.9001060512608494,0
rbt_605825,5.5716080139471185,90.3,6.170108542577097,2.901504297696666,0
sbt_4580,10.020820539868117,163.8,6.1177170573065425,2.8788227570280562,0
rbt_1631852,5.515842857524585,90.3,6.108353109108068,2.8712596425545733,0
rbt_605993,5.48398132066881,90.3,6.07306901513711,2.8542018832865264,0
rbt_621999,5.443882642974342,90.3,6.028662949030279,2.8338884452775677,0
rbt_630753,5.439846541535015,90.3,6.024193290736451,2.833164449388466,0
sbt_28279,12.992224606890733,216.3,6.006576332358176,2.980496230058149,0
sbt_20214,12.99221717535587,216.3,6.006572896604656,2.9804965189827524,0
sbt_6049,9.829181349856638,163.8,6.000721214808692,2.8240242552327075,0
smt_6110,19.413888025386026,327.6,5.92609524584433,3.373670958440082,0
rbt_607384,3.60176075917595,61.95,5.813980240800564,2.731704313301668,0
rbt_1607278,4.449618329482758,76.65,5.805111975841823,2.727806303013954,0
rbt_1628760,5.225418143240062,90.3,5.786731055636835,2.7190395125197635,0
smt_24515,18.933668679553133,327.6,5.7795081439417375,3.3469059887951107,0
smt_6552,18.93327341793917,327.6,5.779387490213421,3.3468106884624285,0
smt_6549,18.932751146403263,327.6,5.779228066667661,3.3466848198017836,0
smt_23959,18.93229507665703,327.6,5.779088851238409,3.34657495680518,0
smt_22744,18.931747924974527,327.6,5.778921833020307,3.34644321560229,0
smt_19175,18.931292842502824,327.6,5.778782918956906,3.3463336945527202,0
smt_19177,18.93077464249991,327.6,5.778624738247835,3.346209041060161,0
smt_19176,18.930230003120503,327.6,5.7784584869110205,3.3460780936621473,0
smt_19164,18.929992854719746,327.6,5.7783860972892995,3.346021097354152,0
smt_32311,18.929584780336352,327.6,5.7782615324592035,3.345923050725297,0
smt_39119,18.92909529065541,327.6,5.778112115584679,3.3458054936234944,0
smt_32312,18.929072307690426,327.6,5.778105100027602,3.34579997559671,0
smt_32310,18.92905356876368,327.6,5.778099379964493,3.345795475466405,0
smt_32309,18.928600606119453,327.6,5.777961112979075,3.3456867433644697,0
smt_32314,18.92839351331913,327.6,5.777897897838562,3.345637046420116,0
smt_32313,18.92837778419622,327.6,5.777893096518992,3.3456332728389984,0
smt_6802,18.92819745409499,327.6,5.777838050700546,3.4055556270327902,0
smt_24514,18.927631776918126,327.6,5.777665377569635,3.4054205890110487,0
smt_24513,18.92704427859793,327.6,5.777486043528061,3.4052804163769697,0
smt_19166,18.926583261778394,327.6,5.777345318003172,3.405170474454873,0
smt_6414,18.92613322674634,327.6,5.777207944672265,3.405063196590968,0
smt_18852,18.9256777384314,327.6,5.777068906725091,3.4049546642357957,0
smt_6403,18.925172321249804,327.6,5.776914627976129,3.4048342884519727,0
smt_1832,18.92473293411825,327.6,5.7767805049201,3.404729684884959,0
smt_1831,18.924304852893485,327.6,5.7766498329955684,3.4046278137999972,0
smt_1829,18.923464364668448,327.6,5.776393273708317,3.404427919249411,0
smt_1828,18.922855917418904,327.6,5.776207544999664,3.404283308618297,0
rbt_3433894,5.194728952347859,90.3,5.752745240695304,2.7047616219178585,0
smt_6350,18.82804903551516,327.6,5.747267715358718,3.3297660949267915,0
smt_24517,18.82582670107957,327.6,5.746589347093885,3.3294523190910645,0
smt_24520,18.82514555496513,327.6,5.746381427034533,3.329287980564596,0
smt_19116,18.824823910850125,327.6,5.746283245070245,3.3292104151332023,0
rbt_1607357,4.3826362492665965,76.65,5.717725047966858,2.687415033940054,0
rbt_605806,4.787476985695829,90.3,5.301746385045215,2.49161379289281,0
rbt_622714,4.7146002151542605,90.3,5.2210412127954156,2.4552751954537873,0
smt_6066,8.480328777657807,163.8,5.177245896005987,3.004533832240315,0
smt_6062,8.479900095640328,163.8,5.176984185372605,3.0044213789835723,0
smt_6719,8.479426576036715,163.8,5.176695101365516,3.0042976368168905,0
smt_6176,8.478892548663012,163.8,5.176369077327846,3.004157420688314,0
smt_6144,8.478393594013697,163.8,5.176064465209827,3.004027522667197,0
smt_6227,8.477864438055507,163.8,5.1757414151743015,3.003889629874447,0
smt_19063,8.477352982111784,163.8,5.175429171008415,3.0037569091337324,0
smt_6092,8.47684586691283,163.8,5.17511957686986,3.0036249439371616,0
smt_29474,8.476406383148172,163.8,5.17485127176323,3.0035122632973255,0
smt_29473,8.475914247424019,163.8,5.1745508226031856,3.0033857291065633,0
smt_19115,8.475421737316605,163.8,5.174250144881932,3.0032580966832483,0
smt_24512,8.475033299901833,163.8,5.174013003603072,3.0031538317203093,0
rbt_1607258,3.941063489506255,76.65,5.141635341821598,2.4181368034834345,0
smt_37840,8.371121795128936,163.8,5.110574966501182,2.9758860315236415,0
smt_6474,8.370771785569792,163.8,5.110361285451643,2.9757944286344418,0
smt_19061,8.370338092033201,163.8,5.110096515282784,2.975680182034502,0
smt_29476,8.369914263587818,163.8,5.109837767758131,2.9755697941304433,0
smt_6594,8.369396580910221,163.8,5.109521722167412,2.9754343250256934,0
smt_29475,8.368874425409834,163.8,5.109202945915649,2.975297349787985,0
smt_19011,8.368424194890668,163.8,5.108928079908832,2.97518086521225,0
smt_19014,8.367907928799747,163.8,5.108612899145144,2.975046878669619,0
rbt_627328,4.601425672937663,90.3,5.095709493840158,2.398579702882554,0
sbt_5830,8.26848712878888,163.8,5.047916440042051,2.3753651148560255,0
rbt_621168,3.829562981268906,76.65,4.996168273018794,2.3484601312241558,0
rbt_605815,4.493796816417447,90.3,4.976519176542023,2.340415281500166,0
rbt_1107330,4.492544539886224,90.3,4.975132380826384,2.3416557160263713,0
rbt_621171,3.0748071938603467,61.95,4.963369158773764,2.3318557749367534,0
rbt_3422597,4.473539517250555,90.3,4.95408584413129,2.3300999921995147,0
rbt_606127,3.052087387425167,61.95,4.926694733535378,2.3146650304568905,0
rbt_635966,3.0351607682154618,61.95,4.899371700105668,2.3020702402917794,0
rbt_1124041,4.41379996409661,90.3,4.887929085378306,2.2990388453064208,0
rbt_605921,3.6373701433402537,76.65,4.745427453803331,2.2307674923702576,0
sbt_14007,7.7303678741982935,163.8,4.719394306592364,2.220314506028848,0
sbt_25907,10.170598387433204,216.3,4.702079698304764,1.8011297775040729,0
sbt_21361,10.170591688361222,216.3,4.702076601184106,1.8011298772663917,0
sbt_20771,10.170586338957479,216.3,4.702074128043217,1.801132022717917,0
rbt_627336,4.2224097147830095,90.3,4.675979750590265,2.1971558744457345,0
rbt_1627321,4.206512034969423,90.3,4.658374346588508,2.1898681810959353,0
rbt_1607355,4.188704254948481,90.3,4.638653659965096,2.1803998442916304,0
rbt_605902,2.8732126081393052,61.95,4.637954169716393,2.1795111585648512,0
sbt_35173,5.835266300072109,128.1,4.555243013327174,2.1417068124967815,0
rbt_1607358,3.4877109159251125,76.65,4.550177320189317,2.139054827108466,0
sbt_21952,9.829180524751754,216.3,4.544235101595818,2.138580996753508,0
sbt_20840,7.400526310203697,163.8,4.518025830405187,2.126351793559086,0
sbt_6273,7.393959602098966,163.8,4.51401685109827,2.1234105724390875,0
smt_6536,12.855703013975404,286.65,4.4848083076837275,2.635391336389587,0
smt_6703,12.855104932193363,286.65,4.484599662373404,2.6352460759731673,0
smt_6514,12.854518346808778,286.65,4.484395027667461,2.63510375924437,0
smt_6984,12.854428800552682,286.65,4.484363788785168,2.6350820466132308,0
smt_5854,12.853517588289218,286.65,4.4840459055605155,2.634861302578756,0
smt_5855,12.852834737771428,286.65,4.483807688041663,2.634696117735309,0
smt_5657,12.852274963315473,286.65,4.4836124065290335,2.6345608578072945,0
smt_21743,12.851684723884684,286.65,4.483406497081697,2.6344183852029253,0
smt_22741,12.851079840252485,286.65,4.483195478894989,2.634272536288826,0
smt_6098,12.850599205348624,286.65,4.483027805807998,2.634156760629247,0
smt_19120,12.850041755615381,286.65,4.482833335292302,2.6340226089273986,0
smt_22740,12.849489929477539,286.65,4.482640826609991,2.6338899451816284,0
smt_22738,12.833460402135753,286.65,4.477048805908165,2.628057808581866,0
smt_6754,12.832958247308357,286.65,4.476873625434627,2.6279359540893847,0
smt_6567,12.832447710223708,286.65,4.476695520747849,2.627812178297832,0
smt_6746,12.831940124347772,286.65,4.47651844561234,2.6276892308947253,0
smt_6812,12.831441226747195,286.65,4.47634440144678,2.627568497780786,0
rbt_3405838,4.017110108499743,90.3,4.448626919711787,2.0935891019919723,0
rbt_622273,2.557087014752235,57.75,4.427856302601272,2.084417658488093,0
rbt_1107341,2.7390545296336275,61.95,4.421395528060739,2.0801598971249136,0
rbt_638617,2.7283200292592014,61.95,4.404067843840519,2.0718783459861045,0
rbt_605828,3.968671791760447,90.3,4.394985372935158,2.0684996108765747,0
rbt_1607292,3.8932560482774154,90.3,4.311468492001567,2.027310459351649,0
rbt_1626490,3.851470312592087,90.3,4.265194144620251,3.2305695075056775,0
rbt_1635060,2.642096667806182,61.95,4.264885662318292,2.005672251389903,0
sbt_37156,6.961821970154224,163.8,4.250196562975717,1.9970011191017074,0
rbt_605867,3.829321779189471,90.3,4.2406664221367345,1.9942021314424323,0
sbt_4615,6.8663178189772704,163.8,4.191891220376844,1.9736418658392274,0
sbt_3373,6.866316638328163,163.8,4.191890499589842,1.9736410772920152,0
sbt_20793,6.866315552586257,163.8,4.191889836743747,1.9736403589539606,0
sbt_4010,6.866313865808634,163.8,4.191888806964977,1.9736392552123823,0
sbt_28804,6.8663123304187295,163.8,4.191887869608504,1.9736382627387128,0
rbt_605812,3.7391126211668433,90.3,4.14076702233316,1.9489961197063772,0
rbt_632613,3.736030132517242,90.3,4.137353413640357,1.9462290462061083,0
rbt_622713,3.7175991710407854,90.3,4.11694260358891,1.934641385156083,0
rbt_606120,2.5385839389909752,61.95,4.097794897483414,1.9247965442104211,0
sbt_26269,8.789999357125291,216.3,4.063799980178128,1.9110878394796333,0
smt_7052,6.5812124374207555,163.8,4.017834210879582,2.155133513014994,0
rbt_1132019,3.6194350888133506,90.3,4.008233763912902,1.8847610420998306,0
rbt_605863,3.6018610401309026,90.3,3.988771915981066,1.8761297832482853,0
rbt_634166,3.0271948081428897,76.65,3.9493735266052052,1.8559363386604846,0
rbt_1138614,2.4301677330816305,61.95,3.922788915386005,1.8445836468164225,0
sbt_4118,11.164686511056916,286.65,3.8948845320275307,1.439915291289149,0
rbt_605803,3.4982562066837777,90.3,3.8740378811558998,1.8212447590354,0
smt_37837,8.37171025888161,216.3,3.870416208451969,2.2537016143140844,0
smt_37841,8.371344279625049,216.3,3.8702470086107486,2.253627291648139,0
rbt_605834,3.4725847521035416,90.3,3.845608806316214,1.8106128191572595,0
rbt_605904,2.376654125728013,61.95,3.836406982611805,1.8012899650503922,0
smt_29484,6.281647934974583,163.8,3.834949899251882,1.899668622343173,0
smt_22951,6.281634523687632,163.8,3.834941711653011,1.8996603574125646,0
smt_19381,6.280305519445712,163.8,3.8341303537519607,1.8988425073088335,0
smt_18804,6.27961356220496,163.8,3.8337079134340417,1.8984175278483277,0
smt_19380,6.278820540075033,163.8,3.8332237729395806,1.8979311889895214,0
smt_5349,6.278185123899002,163.8,3.8328358509761915,1.897542056138695,0
smt_18803,6.277539698006107,163.8,3.832441818074546,1.8971472963697886,0
smt_13454,6.276880618135932,163.8,3.8320394494114356,1.8967447103946606,0
smt_19377,6.276097109834987,163.8,3.8315611171153763,1.8962668123612436,0
smt_29411,6.27511200378913,163.8,3.830959709272973,1.895667022467629,0
smt_8954,6.274506703518485,163.8,3.830590173088208,1.895299075096186,0
smt_5584,6.273801059958734,163.8,3.830159377264184,1.8948707051024989,0
rbt_605810,2.9310286142456383,76.65,3.823912086426142,1.7973309295353082,0
rbt_605864,3.443768539793861,90.3,3.813697164777255,1.7938094010919723,0
rbt_609682,2.9029931533349003,76.65,3.7873361426417484,1.7818872661473646,0
rbt_622703,2.3295387908373915,61.95,3.7603531732645545,2.8486509735374974,0
rbt_605835,3.3937339141894722,90.3,3.758287834096868,1.7694826800126717,0
sbt_14006,6.144888107420226,163.8,3.751457941037989,1.7642852904777244,0
smt_25186,6.062836607461998,163.8,3.7013654502209996,2.00073451304444,0
sbt_27416,8.000815991688752,216.3,3.6989440553346054,1.7396694803788402,0
sbt_15213,8.000815936359885,216.3,3.6989440297549163,1.7396694684230625,0
rbt_606128,2.820203121069043,76.65,3.6793256634951637,1.7291749693164034,0
rbt_1607257,3.2924172023115412,90.3,3.6460877102010425,1.7139808657368238,0
rbt_607385,3.285660006203743,90.3,3.638604658032938,1.7115038249988925,0
rbt_3405845,3.2751001722309607,90.3,3.6269104897352835,1.7073876776291044,0
rbt_633056,3.2709324368480672,90.3,3.622295057417572,1.7031852467577853,0
rbt_606141,3.2670355220407603,90.3,3.6179795371436994,1.7033390031036235,0
rbt_623015,3.2586495240270192,90.3,3.608692717637895,2.733432820344232,0
sbt_34389,4.601424430788759,128.1,3.5920565423799835,2.7643915840165856,0
smt_37855,7.732265275785519,216.3,3.574787459910087,1.9500544416371592,0
smt_37854,7.731881855656664,216.3,3.5746101967899504,1.9500083271843722,0
smt_37853,7.731528986433724,216.3,3.5744470579906253,1.9499678311015376,0
smt_37852,7.731166753970406,216.3,3.574279590370044,1.9499250403497232,0
smt_37851,7.73082554033498,216.3,3.5741218401918537,1.949886506983361,0
smt_37850,7.730470595041809,216.3,3.5739577415819737,1.9498458883614074,0
smt_37849,7.730117064468119,216.3,3.5737942970264074,1.9498063166177129,0
smt_37848,7.729750869550107,216.3,3.5736249974804006,1.9497648550691407,0
smt_37847,7.729386015264816,216.3,3.573456317736854,1.9497185368849361,0
smt_37846,7.7291295560803235,216.3,3.5733377513085176,1.9496944041644717,0
smt_37845,7.728779471551055,216.3,3.5731758999311394,1.9496565411969822,0
smt_38000,7.728406277946248,216.3,3.5730033647463,1.949612343853308,0
smt_38002,7.7280901938504405,216.3,3.572857232478243,1.9495620106378249,0
smt_38001,7.7280819979094675,216.3,3.57285344332384,1.9495613879598306,0
smt_37843,7.728069553831661,216.3,3.5728476901672033,1.9495766342542231,0
smt_37842,7.727725284379574,216.3,3.5726885272212545,1.9495304797761384,0
smt_37838,7.727547349714654,216.3,3.5726062643156054,1.9495164867803172,0
rbt_605982,3.192055995821269,90.3,3.5349457318064994,1.6633118479124402,0
rbt_1606000,3.1909940263536165,90.3,3.533769685884404,1.6614893729781421,0
rbt_1629639,3.177596020286322,90.3,3.5189324698630364,1.6533482923441465,0
sbt_3952,5.743422433336502,163.8,3.5063629019148363,1.6502751661278268,0
sbt_4120,5.743421033996942,163.8,3.50636204761718,1.6502742543432751,0
sbt_20855,5.743419667725926,163.8,3.5063612135078914,1.6502733717968388,0
sbt_20854,5.743418368244118,163.8,3.5063604201734537,1.6502725391330217,0
rbt_635963,2.1715792319430447,61.95,3.505374062862057,1.6464963634633074,0
rbt_626481,3.122927311757393,90.3,3.4583912644046437,1.6256817907239658,0
rbt_1607306,2.633333734541766,76.65,3.435529986355859,1.615477284638912,0
rbt_605901,3.092723075286907,90.3,3.424942497549177,1.6093648741040079,0
rbt_605820,2.62044912009605,76.65,3.418720313236855,1.608084690436767,0
rbt_3405847,3.0854381192058944,90.3,3.4168749935834937,1.608421207601336,0
sbt_34000,7.347057601622802,216.3,3.3966979203064267,1.5966858721272477,0
rbt_1607289,2.6033607675738266,76.65,3.3964263112509148,1.5961218062676565,0
smt_6512,9.665486714439165,286.65,3.371877451400372,1.99367872758251,0
smt_6425,9.665085359655523,286.65,3.3717374357772627,1.9935912932452668,0
smt_6930,9.664470480541588,286.65,3.3715229305918677,1.9934575465678142,0
sbt_20828,5.512199361486541,163.8,3.365201075388608,1.5817876265751802,0
smt_15243,5.478446253483181,163.8,3.344594782346264,1.9880376107344186,0
smt_26472,5.477982777128069,163.8,3.3443118297485155,1.9879281516238148,0
smt_14780,5.4774574618795615,163.8,3.3439911244685967,1.987803335324551,0
smt_14754,5.476933265384961,163.8,3.3436711021886207,1.9876794250109837,0
smt_14729,5.476411677105231,163.8,3.3433526722254157,1.9920776673748046,0
smt_21229,5.47588217967091,163.8,3.343029413718504,1.9919545682258741,0
smt_26474,5.475383210410215,163.8,3.3427247926802286,1.991838503195204,0
smt_22453,5.474943112386616,163.8,3.3424561125681413,1.9917397453225234,0
smt_14544,5.474414466811615,163.8,3.3421333741218646,1.9916194038823034,0
smt_14113,5.473886476825666,163.8,3.3418110359131052,1.9915011547244588,0
smt_22508,5.473307207188837,163.8,3.341457391446176,1.991369215076337,0
smt_14452,5.472796506729138,163.8,3.3411456085037474,1.9912529632124112,0
smt_30311,5.4723679416063185,163.8,3.3408839692346266,1.9911602085590474,0
smt_26478,5.4718394201882985,163.8,3.3405613065862627,1.9910408570867666,0
sbt_37537,7.2226448523015225,216.3,3.339179312205974,1.3285012846103639,0
sbt_37545,7.22263622607806,216.3,3.3391753241230044,1.3285018666718182,0
sbt_37546,7.222619543435844,216.3,3.3391676113896644,1.32850077663153,0
sbt_37539,7.2141080668726465,216.3,3.335232578304506,1.9040479764007656,0
sbt_37538,7.214102548662937,216.3,3.3352300271210984,1.9040484977947811,0
rbt_1609690,2.993768160986331,90.3,3.3153578748464354,1.5578378522118055,0
smt_22686,9.463277405797594,286.65,3.301335219186323,2.0467491133914124,0
smt_6239,9.462803256366639,286.65,3.301169808605142,2.046643001233954,0
smt_23961,9.462340402776505,286.65,3.3010083386626565,2.0465395526477823,0
smt_37856,7.139783853616179,216.3,3.30087094480637,1.8336280282703665,0
smt_29407,9.461869532012292,286.65,3.300844071868932,2.0464344499293543,0
smt_6278,9.46144776806247,286.65,3.300696936355301,2.046340426387087,0
smt_6630,9.460955980234338,286.65,3.3005253724871233,2.0462309336119175,0
smt_19070,9.460461809135202,286.65,3.3003529771970004,2.0461210635273894,0
smt_6639,9.459967889440932,286.65,3.3001806696113496,2.04601140315104,0
smt_19117,9.459506805387587,286.65,3.3000198169850297,2.045909171992301,0
smt_21514,9.454210608104516,286.65,3.298172198885232,2.0401132403354025,0
smt_5615,9.453734065817201,286.65,3.2980059535381834,2.040004986569309,0
smt_18742,9.453362916246142,286.65,3.2978764752297725,2.0399207713070266,0
smt_6270,9.452779961822303,286.65,3.2976731072116885,2.0397886683804187,0
smt_5967,9.45232651116225,286.65,3.2975149175518053,2.0396860574926134,0
smt_5772,9.451791554308143,286.65,3.2973282938455064,2.0395651664018186,0
smt_6158,9.451262423175306,286.65,3.2971437024857164,2.039445766435652,0
smt_6263,9.450804135563475,286.65,3.296983825418969,2.039342493157566,0
smt_6384,9.450235735312445,286.65,3.296785534733105,2.0392145880510535,0
smt_22684,9.449679520619167,286.65,3.2965914950703534,2.0390896200611657,0
smt_22685,9.449225653118067,286.65,3.2964331599923486,2.038987790205161,0
smt_29447,9.448749766591439,286.65,3.2962671434123285,2.0388811586158404,0
smt_19065,9.448239912220924,286.65,3.2960892768954904,2.038767073373399,0
smt_24385,9.44766375620616,286.65,3.295888280553344,2.038638348850226,0
smt_29448,9.445505862710542,286.65,3.2951354832410753,2.0253772835611783,0
smt_6824,9.445041929005601,286.65,3.294973636492448,2.0252695769538316,0
smt_6855,9.444544426397837,286.65,3.2948000789805816,2.025154223234438,0
smt_19062,9.443963379852434,286.65,3.294597376540183,2.0250196905341746,0
smt_7054,9.443501492038703,286.65,3.294436243516031,2.0249128950908823,0
smt_6446,9.443029526030028,286.65,3.29427159463807,2.0248039048482362,0
smt_39006,9.44254592495576,286.65,3.294102886780311,2.0246923700133492,0
smt_39008,9.442108896748838,286.65,3.2939504262162353,2.0245917004577083,0
smt_39007,9.442090477636572,286.65,3.2939440005709306,2.024587459940257,0
smt_6122,9.441671035028715,286.65,3.2937976748748357,2.0244909569395637,0
smt_18741,9.44114167731055,286.65,3.2936130044690572,2.0243693206618887,0
smt_5938,9.44065119404126,286.65,3.293441895706004,2.0242567719050952,0
smt_5946,9.440084755368328,286.65,3.293244289331355,2.0241269798209296,0
sbt_34382,4.214413010440336,128.1,3.2899398988605277,1.54610535151743,0
rbt_1625170,2.9691926746733674,90.3,3.2881424968697317,1.5451532925278608,0
rbt_605821,4.198412151617846,128.1,3.2774489864307927,1.5398976680302967,0
sbt_35105,4.188703894592104,128.1,3.269870331453633,1.5370028776981828,0
smt_856,5.341318401783461,163.8,3.2608781451669477,1.9475991294870758,0
smt_15622,5.340737478416873,163.8,3.260523491096992,1.9474580020497798,0
smt_23196,5.3404145883387315,163.8,3.2603263665071616,1.9473838211496695,0
smt_15581,5.340068407597809,163.8,3.260115022953485,1.9473047079222514,0
smt_15568,5.339693649940251,163.8,3.2598862331747567,1.9472183782126866,0
rbt_605988,2.9300663592805307,90.3,3.244813243943002,1.5272685934886798,0
rbt_605804,1.9869293016785228,61.95,3.207311221434258,1.5073575802344068,0
smt_23147,5.2383492215143415,163.8,3.198015397749903,1.9165413678504615,0
smt_16038,5.238032655429404,163.8,3.1978221339617847,1.916482373411524,0
smt_13546,5.195447755691952,163.8,3.171824026673963,1.8980421237849783,0
smt_21225,5.195136110555321,163.8,3.1716337671277905,1.897967840748172,0
smt_13930,5.194575403482346,163.8,3.171291455117427,1.8978266203897143,0
smt_21226,5.194018710023972,163.8,3.170951593421228,1.8976847793796006,0
smt_13280,5.193592773664533,163.8,3.170691559013756,1.8975783684758172,0
smt_14437,5.193187266466647,163.8,3.1704439966218843,1.8974780031232485,0
sbt_6048,5.192992241413741,163.8,3.170324933708022,1.4920806211320548,0
smt_13955,5.192778387576004,163.8,3.1701943758095257,1.8973773261361513,0
smt_26469,5.192364133842328,163.8,3.1699414736522145,1.8972745390506474,0
smt_20808,5.192002078339248,163.8,3.169720438546549,1.8971864854303657,0
smt_23095,5.191622938009725,163.8,3.16948897314391,1.8970899445333063,0
smt_20807,5.191431734658574,163.8,3.169372243381302,1.8970485373199477,0
smt_13717,5.191028605546908,163.8,3.16912613281252,1.8969492418014111,0
rbt_605829,2.8563972357250154,90.3,3.16323060434664,1.4871638796479878,0
smt_37925,6.8286164199417225,216.3,3.157011752169081,1.7629101376433913,0
smt_37924,6.828443987390535,216.3,3.156932033005332,1.7629054574605034,0
smt_37923,6.8280749862638785,216.3,3.1567614360905583,1.7628711482392025,0
smt_37864,6.827711251698752,216.3,3.156593274016991,1.7628266635179537,0
smt_37863,6.827538934208921,216.3,3.156513608048507,1.7628109320466718,0
smt_37862,6.8273668027365195,216.3,3.156434028079759,1.7628018926107831,0
smt_37861,6.827082492560909,216.3,3.156302585557517,1.7627797565433854,0
smt_37860,6.826738316218141,216.3,3.156143465657948,1.7627500012158643,0
smt_37859,6.8263753989320035,216.3,3.1559756814294975,1.7627121129690888,0
smt_37858,6.8261050026530325,216.3,3.1558506715917853,1.7626944323780263,0
smt_37831,6.825731134361728,216.3,3.155677824485311,1.7626496356455066,0
sbt_15045,6.825076054338287,216.3,3.1553749673316167,1.4843449471545436,0
smt_37898,6.807778974189759,216.3,3.1473781665232354,1.7556721961629147,0
smt_37897,6.807368485119473,216.3,3.14718838886707,1.755620151994779,0
smt_37896,6.807011826028257,216.3,3.1470234979326195,1.7555779749473395,0
smt_14797,5.154547233758399,163.8,3.1468542330637352,1.8792121030243256,0
smt_37895,6.806629266876112,216.3,3.1468466328599685,1.7555316577978182,0
smt_37894,6.806252829736967,216.3,3.146672598121575,1.7554857479817976,0
smt_23041,5.154137348737142,163.8,3.1466039980080227,1.879108054464955,0
smt_37893,6.805896791299815,216.3,3.146507994128439,1.755443942929504,0
smt_14823,5.153721951134061,163.8,3.1463503975177414,1.879003092233775,0
smt_37892,6.805525148389498,216.3,3.146336175861996,1.7553993507736083,0
smt_37891,6.805166693226439,216.3,3.1461704545660836,1.7553580138382419,0
smt_13752,5.153300517432246,163.8,3.146093111985498,1.878888914594519,0
smt_37890,6.804785528370012,216.3,3.145994234105414,1.7553188883028066,0
smt_37889,6.8042705028422255,216.3,3.145756127065291,1.755248186014148,0
smt_37888,6.804011687733955,216.3,3.1456364714442695,1.755217717877221,0
smt_37887,6.803763911890646,216.3,3.145521919505615,1.7551948853504704,0
smt_37886,6.803380484894912,216.3,3.1453446532107776,1.7551502710278346,0
smt_37885,6.803011052388777,216.3,3.1451738568602754,1.7551082680431407,0
smt_37884,6.80263785275802,216.3,3.145001318889514,1.75506597009574,0
smt_37883,6.802263407031163,216.3,3.1448282048225438,1.7550242219834475,0
smt_37882,6.80187771821022,216.3,3.1446498928387516,1.7549803944877818,0
smt_37881,6.801504802794537,216.3,3.1444774862665446,1.7549390687604125,0
smt_37880,6.801126333752677,216.3,3.14430251213716,1.7548960867566026,0
smt_37879,6.80077054775582,216.3,3.1441380248524364,1.7548585658516458,0
smt_37878,6.800378264543829,216.3,3.1439566641441643,1.7548145255853855,0
smt_37877,6.8000092677901,216.3,3.1437860692510857,1.754774999275534,0
smt_37876,6.7996267451307615,216.3,3.14360922104982,1.754733708445402,0
smt_37875,6.799242474731697,216.3,3.1434315648320372,1.7546924822819634,0
smt_37874,6.798856680237319,216.3,3.1432532039932126,1.7546507474374842,0
smt_37873,6.798481973741354,216.3,3.143079969367246,1.7546096703525247,0
smt_37945,6.798134126921416,216.3,3.14291915252955,1.7545680504153944,0
smt_37944,6.797886158055026,216.3,3.1428045113523004,1.7545440918377257,0
smt_37943,6.797595817687216,216.3,3.1426702809464704,1.7545162906838419,0
smt_37942,6.797254351182178,216.3,3.142512413861386,1.7544806611395707,0
smt_37941,6.796915764113397,216.3,3.142355877999721,1.7544455234578562,0
smt_37940,6.796580313295406,216.3,3.1422007920921895,1.754411434586897,0
smt_37939,6.796237791251651,216.3,3.1420424370095477,1.7543768443502035,0
smt_37938,6.795888038101091,216.3,3.1418807388354555,1.7543415782408003,0
smt_37937,6.7955342029951655,216.3,3.1417171534882873,1.7543055956645182,0
smt_37936,6.795186433080261,216.3,3.141556372205391,1.7542707714956676,0
smt_37935,6.79483849846868,216.3,3.141395514779787,1.7542343727804954,0
smt_37934,6.794523774475121,216.3,3.1412500113153587,1.7542047971627854,0
smt_37933,6.7941798344973385,216.3,3.1410910006922506,1.7541710870622242,0
smt_37932,6.7938339471547025,216.3,3.140931089761767,1.7541373068221855,0
smt_23225,5.140654124632303,163.8,3.1383724814605025,1.8722122631243707,0
smt_21220,5.140189547673762,163.8,3.138088856943688,1.8720905769864062,0
smt_14845,5.139704173358344,163.8,3.1377925356278045,1.8719640472447454,0
smt_26425,5.139201644107638,163.8,3.137485741213454,1.871833427254564,0
smt_20810,5.13870226065572,163.8,3.1371808673111845,1.871703050717849,0
smt_26429,5.138281698184716,163.8,3.136924113665883,1.8715948360257293,0
smt_26430,5.137864560156485,163.8,3.136669450644985,1.8714880110796475,0
smt_21222,5.124802331116009,163.8,3.128694951841275,1.8657837035300175,0
smt_14301,5.124462180914298,163.8,3.1284872899354688,1.8656924240986807,0
smt_23277,5.124032415858233,163.8,3.128224918106369,1.865575964045395,0
rbt_1607316,2.8245758174430073,90.3,3.1279909384750915,2.3703849497347,0
smt_26427,5.123628160379105,163.8,3.127978119889563,1.865467440243103,0
smt_20812,5.123202093619221,163.8,3.12771800587254,1.865353285665976,0
rbt_1107342,1.9375672934643962,61.95,3.1276308207657726,1.4706681222506413,0
smt_15154,5.122775072347919,163.8,3.127457309125713,1.8652390416794493,0
smt_14674,5.1223723483442125,163.8,3.1272114458755875,1.8651331874042485,0
smt_37986,6.717891260238821,216.3,3.1058212021446234,1.77631941301314,0
smt_37987,6.717626823605517,216.3,3.105698947575366,1.7762808317856003,0
smt_37993,6.717288972385395,216.3,3.1055427519118792,1.7762261170237716,0
smt_37920,6.717120054989582,216.3,3.1054646578777536,1.7762058262360225,0
smt_37919,6.716710030762582,216.3,3.1052750951283317,1.7761440397688972,0
smt_37918,6.7163075237932786,216.3,3.105089007763883,1.7760834146679798,0
smt_37917,6.715922466617188,216.3,3.104910987802676,1.7760262939403033,0
smt_37916,6.71552571671596,216.3,3.1047275620508366,1.7759672914116154,0
smt_37915,6.715134348154218,216.3,3.1045466242044464,1.7759070976703117,0
smt_37914,6.714843606192573,216.3,3.104412208133413,1.7758663966137538,0
smt_37913,6.7144629487474425,216.3,3.1042362222595665,1.7758110343910556,0
smt_37912,6.714062362715455,216.3,3.1040510229844913,1.7757522188995967,0
smt_40685,6.7136743820299944,216.3,3.1038716514239453,1.7756952517029543,0
smt_37911,6.7133068634966016,216.3,3.10370173994295,1.7756334167062267,0
smt_37910,6.713285321633407,216.3,3.1036917806904327,1.7756396211471797,0
smt_37909,6.712890884387888,216.3,3.1035094241275485,1.7755825599400559,0
smt_37908,6.712504209454425,216.3,3.103330656243377,1.7755275156440617,0
smt_40683,6.712099868338753,216.3,3.1031437209148187,1.7754689964635544,0
smt_37906,6.711724018811762,216.3,3.1029699578417764,1.7754158873985737,0
smt_37905,6.7113345584051345,216.3,3.1027899021752816,1.7753600035494514,0
smt_37904,6.7109719763489535,216.3,3.1026222729306303,1.7753088948405324,0
smt_37903,6.710608301375852,216.3,3.1024541384076985,1.7752553854590012,0
smt_37963,6.66132864310957,216.3,3.079671124877286,1.7530214371633848,0
smt_37983,6.660826596977013,216.3,3.0794390184822067,1.7529387187857843,0
smt_37984,6.660316319037814,216.3,3.0792031063512777,1.7528547477657836,0
smt_37985,6.65981431394669,216.3,3.0789710189305084,1.7527725198077393,0
smt_37947,6.659320470286734,216.3,3.0787427047095393,1.752691372729176,0
smt_37948,6.6588687297433236,216.3,3.078533855637228,1.7526184002901306,0
sbt_22669,6.6575915790331335,216.3,3.077943402234458,1.4471457011414965,0
rbt_3405987,1.9060170276666364,61.95,3.0767022238363784,1.4485302434645468,0
rbt_1132012,2.767513401515004,90.3,3.0647988942580335,1.4404789080385452,0
rbt_1607268,2.3467117639318307,76.65,3.0615939516397006,1.4388243367805507,0
sbt_35588,6.604932062597379,216.3,3.0535978097999896,1.4350980224850272,0
rbt_605823,2.754623482885935,90.3,3.0505243442812127,1.4346374498395704,0
smt_29426,6.581934133671782,216.3,3.0429653877354514,1.6323697309688578,0
sbt_21281,4.9456329013514075,163.8,3.0193119055869397,1.4186324974919904,0
rbt_605989,2.6918490341811823,90.3,2.981006682371188,1.401100836379128,0
rbt_1121173,2.686633067674048,90.3,2.9752304182436857,1.3995543301688207,0
rbt_605807,2.679602167445931,90.3,2.9674442607374654,1.3962483776464945,0
rbt_606130,2.25763172410846,76.65,2.9453773308655706,1.3840176817858498,0
sbt_3491,4.8165182323238,163.8,2.9404873213210005,1.3822820970402236,0
rbt_637399,1.8108957628527138,61.95,2.923157002183557,1.373672742108454,0
sbt_21191,4.778053759105527,163.8,2.9170047369386607,1.3715852909535808,0
sbt_26310,4.71459980966442,163.8,2.8782660620661904,1.3535488921821746,0
rbt_637705,2.5840463854499727,90.3,2.8616239041527938,2.167789169217207,0
smt_37960,6.172707491607421,216.3,2.853771378459279,1.6664401521718115,0
smt_37962,6.172273372276911,216.3,2.8535706760411053,1.6663714328794468,0
rbt_1105833,2.5760888349242577,90.3,2.852811555840817,1.3410709458940042,0
smt_37981,6.152097159456679,216.3,2.8442427921667495,1.6413082441973021,0
smt_37951,6.151691529016798,216.3,2.844055260756726,1.6412406341748005,0
smt_37952,6.151285186624763,216.3,2.843867400196377,1.6411748376869015,0
smt_37953,6.1507849631874825,216.3,2.8436361364713276,1.6410918722182466,0
smt_37954,6.150303055118539,216.3,2.8434133403229493,1.6429696499925035,0
smt_37955,6.149780077003527,216.3,2.8431715566359346,1.642882132496515,0
smt_37956,6.149359559755615,216.3,2.842977142744158,1.6428150803161614,0
smt_37957,6.148862160559247,216.3,2.842747184724571,1.6427343955812692,0
smt_37958,6.14836756955985,216.3,2.842518524992996,1.6426548265670304,0
smt_37959,6.147863521582725,216.3,2.8422854931034323,1.6425738122346516,0
rbt_1607276,2.5661897270827843,90.3,2.841849088685254,1.3353926180084024,0
smt_25183,6.062206637016683,216.3,2.8026845293650866,1.5148277846815974,0
smt_25117,6.061563339783898,216.3,2.802387119641192,1.5145303327716662,0
smt_25116,6.060902033771973,216.3,2.802081384083205,1.5142248400753597,0
smt_25115,6.060384607809759,216.3,2.8018421672721954,1.5139860161971876,0
smt_25114,6.059930476041002,216.3,2.801632212686547,1.5137765537090706,0
smt_25113,6.059400489228141,216.3,2.801387188732381,1.5135322784382872,0
smt_25112,6.058840634939224,216.3,2.8011283564212777,1.513274441580242,0
smt_25111,6.058473836037062,216.3,2.800958777640805,1.5131056291737541,0
smt_25110,6.058208896369471,216.3,2.800836290508308,1.512983751935568,0
smt_25109,6.057510087030789,216.3,2.8005132163803923,1.5126625136140541,0
smt_25108,6.0569780257896575,216.3,2.800267233374784,1.5124181497761409,0
smt_25107,6.056261234816432,216.3,2.799935845962289,1.5120892472812464,0
smt_25106,6.0556353732836135,216.3,2.7996464971260346,1.5118023539768242,0
smt_25105,6.0549951119539065,216.3,2.799350490963433,1.51150913642937,0
smt_37979,6.054481922072001,216.3,2.7991132325806753,1.630968259867169,0
smt_29427,6.054354512701525,216.3,2.7990543285721334,1.511216044913592,0
smt_37980,6.054050866162648,216.3,2.798913946445977,1.6308794369902282,0
smt_6407,6.0530864540813765,216.3,2.7984680786321667,1.5106367053204106,0
smt_22794,6.052455270301203,216.3,2.7981762692099874,1.5103487490742251,0
smt_6477,6.051758645790477,216.3,2.7978542051735906,1.5100312581608921,0
smt_6641,6.0508535803184715,216.3,2.797435774534661,1.5096192728197828,0
smt_6157,6.050218048842466,216.3,2.797141955082046,1.5093303207366215,0
smt_6694,6.049500243040244,216.3,2.796810098492947,1.509004301688477,0
rbt_1607319,2.5253314333408405,90.3,2.7966018087938433,1.9866111224756864,0
rbt_622709,2.5224099805963593,90.3,2.7933665344367213,1.313355221905424,0
rbt_1607328,2.5197770824805654,90.3,2.7904508111634168,1.3122050423701739,0
rbt_607366,2.5187587802517535,90.3,2.7893231232023847,1.3108463490811453,0
smt_6074,7.935186463932417,286.65,2.7682492460953836,1.6279588303280457,0
smt_6082,7.934699183481293,286.65,2.768079254659443,1.6278641518696846,0
smt_6649,7.934218903148761,286.65,2.767911705267316,1.6277710129895355,0
smt_29408,7.933749267553142,286.65,2.7677478693714086,1.6276802131822887,0
smt_6422,7.93327858257957,286.65,2.7675836673921403,1.6275894194862912,0
smt_22683,7.932805427578351,286.65,2.767418603725223,1.627498321535321,0
smt_22793,7.9123079515799,286.65,2.7602679056619226,1.6132432326740138,0
smt_22790,7.911816529202094,286.65,2.7600964692838286,1.613144326670148,0
smt_6370,7.911342085900606,286.65,2.7599309561837106,1.613049096961589,0
smt_29449,7.9112579626019714,286.65,2.759901609140754,1.613714127878505,0
smt_29409,7.9108651239268575,286.65,2.7597645644259057,1.6129536334212338,0
smt_6401,7.910783844845678,286.65,2.759736209609516,1.6136207386710797,0
smt_5650,7.910365373486498,286.65,2.7595902227407985,1.6128537172118877,0
smt_21348,7.91030698817198,286.65,2.759569854586423,1.613529492309248,0
smt_6094,7.909871946696151,286.65,2.759418087108373,1.612754855470861,0
smt_29477,7.909493017726185,286.65,2.759285894898373,1.6126797474701864,0
smt_29450,7.909029882675677,286.65,2.7591243267663277,1.6125879135028933,0
smt_6231,7.90852064449599,286.65,2.7589466752122767,1.6124868101669863,0
smt_6340,7.908043372442054,286.65,2.758780175280675,1.612392454139216,0
sbt_21953,4.492544877296646,163.8,2.7427013902909922,1.2909128086578303,0
sbt_21849,4.492544804993974,163.8,2.7427013461501675,1.2909127876610718,0
sbt_21968,4.492544717378567,163.8,2.7427012926609073,1.2909127622656278,0
smt_6581,7.838227056572057,286.65,2.7344242304455113,1.58432135672012,0
smt_6701,7.837747126485402,286.65,2.7342568032392824,1.584228815320408,0
smt_21959,7.837220025692137,286.65,2.734072920178663,1.584126620252996,0
smt_19219,7.826498263710136,286.65,2.730332553186861,1.5728787586486133,0
smt_5952,7.825992741209663,286.65,2.73015619787534,1.5727738833894256,0
smt_29478,7.825465504937794,286.65,2.7299722675519953,1.5726646619090303,0
smt_22841,7.825000902982487,286.65,2.729810187679221,1.5725687043082208,0
smt_6660,7.824498985879079,286.65,2.729635090137478,1.5724651899853246,0
smt_22845,7.781298200705099,286.65,2.7145641725815803,1.5474714981346203,0
smt_18913,7.780712968053989,286.65,2.7143600097868448,1.5473495440429827,0
smt_5786,7.780145691938052,286.65,2.714162111263929,1.5472316164066713,0
smt_29479,7.779657276598695,286.65,2.7139917239137263,1.547130346710049,0
smt_19224,7.779155280255522,286.65,2.713816598728597,1.5470264912599017,0
rbt_1633892,2.434840602419335,90.3,2.696390478869696,1.2674058134763548,0
sbt_21137,4.413797410371552,163.8,2.6946260136578455,1.2674172469211047,0
rbt_1134165,2.427913321891806,90.3,2.688719071862465,1.2653279392566523,0
rbt_1131858,2.426619046101092,90.3,2.6872857653389723,1.264273299698933,0
rbt_1607353,2.4061130489305835,90.3,2.664577019856682,1.2523769510999914,0
sbt_34390,4.348288767585803,163.8,2.65463294724408,2.0110172811080527,0
smt_37973,5.637915020604622,216.3,2.606525668333158,1.5461419938641396,0
smt_37991,5.637727112159013,216.3,2.606438794340736,1.5461123511960588,0
smt_37974,5.637462233688678,216.3,2.606316335501007,1.5460723210902316,0
smt_37990,5.637010608312134,216.3,2.6061075396727387,1.5459972862209195,0
smt_37975,5.6365928686721585,216.3,2.6059144099270264,1.545929577266648,0
smt_37976,5.6361407485283985,216.3,2.6057053853575582,1.5458557485475939,0
smt_37977,5.635694814693623,216.3,2.605499220847722,1.545782952726994,0
smt_37978,5.6352703742612675,216.3,2.6053029931859766,1.5457154967555429,0
smt_37970,5.5882514078057035,216.3,2.583565144616599,1.5347006704645507,0
smt_37971,5.587656830556555,216.3,2.5832902591569833,1.5345963924589368,0
smt_37972,5.58734941995907,216.3,2.583148136828049,1.5345486367618015,0
smt_37989,5.586910579028037,216.3,2.5829452515155045,1.5344911313820113,0
sbt_20633,4.163838344608423,163.8,2.542025851409293,1.6777451854398164,0
smt_37964,5.471403942437753,216.3,2.529544125029012,1.5077015626562458,0
smt_37965,5.4698506844670245,216.3,2.5288260214826743,1.5074450313483305,0
smt_37994,5.46964782447097,216.3,2.528732235076731,1.5074075285251363,0
smt_37995,5.469643023011136,216.3,2.5287300152617362,1.5074067986266737,0
smt_37996,5.469637242579544,216.3,2.5287273428476853,1.507413506184658,0
smt_37966,5.469285752930689,216.3,2.528564841854225,1.5073581744725526,0
smt_37967,5.46885597319945,216.3,2.528366145723278,1.5072889640093265,0
smt_37968,5.468415201169817,216.3,2.5281623676235863,1.5072179140126292,0
smt_37969,5.467982507906194,216.3,2.5279623245058684,1.5071463236428413,0
sbt_4619,5.443882456456475,216.3,2.516820368218435,1.1830795544085093,0
rbt_606110,1.5131211397344853,61.95,2.442487715471324,1.1475886074356543,0
rbt_1607284,2.197129249319647,90.3,2.433144240664061,1.1439211008814065,0
rbt_1607302,1.4894104127759744,61.95,2.404213741365576,1.1295558679640767,0
rbt_607382,2.148003959955744,90.3,2.378741926861289,1.1184211610900148,0
rbt_1607273,1.822418008260624,76.65,2.3775838333471935,1.117247277676728,0
sbt_26614,3.8514700372231228,162.75,2.366494646527264,1.7924448453358774,0
sbt_26512,3.8514684570801156,162.75,2.366493675625263,1.792443861269773,0
sbt_16246,3.8514678806952736,162.75,2.3664933214717503,1.7924435029657284,0
sbt_5828,3.851465149664899,163.8,2.3513218251922456,1.7809517975388143,0
sbt_3790,3.8242452777682425,163.8,2.3347040767815885,1.0968345873618353,0
rbt_1137150,1.4375566016979648,61.95,2.3205110600451406,1.0909452740849417,0
rbt_3405843,2.0894010742473323,90.3,2.313843936043557,1.088127410258002,0
rbt_1607288,1.756382792021786,76.65,2.291432213987979,1.077044929387972,0
rbt_605817,1.747225686101621,76.65,2.279485565690308,1.0714981802037677,0
smt_13591,3.7105266303051403,163.8,2.265278773080061,1.1230708694710956,0
sbt_30492,2.820200768174195,124.95,2.2570634399153224,1.060752475985204,0
rbt_607387,2.0278306794122978,90.3,2.2456596671232534,1.0553756018815854,0
sbt_21147,2.8731772387592898,128.1,2.2429174385318422,1.053997963163888,0
sbt_17923,2.87317177446778,128.1,2.2429131728866354,1.0539936552380518,0
rbt_626695,2.018751091666598,90.3,2.235604752676188,1.6935859448868282,0
rbt_623432,2.018721667489889,90.3,2.2355721677628893,1.0512143903501088,0
sbt_3473,3.6373678308507635,163.8,2.2206152813496725,1.043883348656678,0
sbt_26790,4.79065616112893,216.3,2.2148202316823533,1.041473043877917,0
smt_18691,6.3376133879079966,286.65,2.210923909962671,1.1613506722486744,0
smt_18692,6.336906338971286,286.65,2.210677250644091,1.1611619204368042,0
smt_22142,6.3362760769445305,286.65,2.210457379014314,1.1609940632466613,0
smt_29410,6.335704104415361,286.65,2.210257842112458,1.160842054083297,0
smt_4821,6.335158424777544,286.65,2.2100674776827294,1.1606973205759175,0
smt_18693,6.334493900284759,286.65,2.2098356533349937,1.1605214459573145,0
smt_5832,6.3338815377205036,286.65,2.209622026066808,1.1603597478021956,0
smt_18694,6.333240326045392,286.65,2.20939833457017,1.1601908145160094,0
smt_5643,6.332675217445972,286.65,2.2092011922016304,1.1600422567545696,0
smt_29483,6.332113578334825,286.65,2.2090052601900663,1.1598949139123924,0
smt_6014,6.331557323767126,286.65,2.208811206616824,1.1597492820606259,0
smt_18695,6.33091564342806,286.65,2.208587351623255,1.1595816548892002,0
smt_29482,6.330345131607368,286.65,2.2083883243004947,1.159432952721952,0
smt_6195,6.3297471875898985,286.65,2.208179727050375,1.1592774383605187,0
smt_6105,6.329147113524631,286.65,2.2079703867171228,1.1591217186304952,0
smt_19334,6.284508115677343,286.65,2.1923977378954627,1.1376354567996827,0
smt_19331,6.283886891531156,286.65,2.1921810191980313,1.1374421224443083,0
smt_22269,6.283276767184806,286.65,2.1919681727489295,1.1372525333273398,0
sbt_34896,4.684030479327854,216.3,2.1655249557687717,1.0179921680576896,0
sbt_34381,3.4982558746431263,163.8,2.135687347156976,1.0040193391521333,0
smt_29480,6.081201194514079,286.65,2.1214725953302214,1.1653692610990505,0
smt_19271,6.080011615822341,286.65,2.1210576018916245,1.1650968096051488,0
smt_5537,6.079539266193323,286.65,2.120892819184833,1.164989031271582,0
smt_19274,6.05682306803069,286.65,2.112968103272524,1.1512752124672037,0
smt_4942,6.056268793939363,286.65,2.1127747406033013,1.1511471637846427,0
smt_18740,6.055727909928102,286.65,2.1125860491638244,1.151022515782443,0
smt_5191,6.055189465388355,286.65,2.1123982087522606,1.150898732192528,0
smt_5198,6.054656049689281,286.65,2.112212122689441,1.1507764027733305,0
smt_5549,6.054068095488819,286.65,2.112007010461824,1.1506419105497196,0
smt_19273,6.053466678873619,286.65,2.11179720176997,1.150504713698081,0
smt_5414,6.052961757658534,286.65,2.1116210562213618,1.1503898232315155,0
smt_5522,6.052400280869874,286.65,2.111425180837214,1.1502623794559848,0
smt_40861,6.023718559299491,286.65,2.101419347392113,1.1328212617863598,0
smt_40860,6.023356774213688,286.65,2.1012931359545397,1.1327373943802923,0
smt_40859,6.02297642730415,286.65,2.1011604490856968,1.1326493729324076,0
smt_40858,6.022590771927009,286.65,2.101025910318161,1.132560279020595,0
smt_40857,6.022117406474793,286.65,2.100860773233837,1.1324511376190096,0
smt_40856,6.021640257231955,286.65,2.100694316145807,1.132341364317848,0
smt_40855,6.021174542693223,286.65,2.10053184813997,1.1322344551666712,0
smt_40854,6.0207340876543425,286.65,2.100378192099893,1.1321335571530171,0
smt_40853,6.02025850884977,286.65,2.1002122828710172,1.1320248456702116,0
smt_40852,6.019780082314173,286.65,2.100045380189839,1.131915727435978,0
smt_22899,6.018266736942172,286.65,2.0995174383192645,1.1239917442743785,0
smt_5757,6.0179684897311745,286.65,2.0994133925453253,1.1241875990058061,0
smt_5956,6.017699185015657,286.65,2.099319443577763,1.123844701304923,0
smt_6028,6.0173773846467835,286.65,2.0992071811082447,1.124035248010234,0
smt_22898,6.016776900139635,286.65,2.0989976975892675,1.123880832669889,0
smt_16985,6.016288479462568,286.65,2.0988273083769644,1.1237555159262722,0
smt_6106,6.01572597466945,286.65,2.09863107436576,1.1236114973512599,0
smt_6021,6.015168737333901,286.65,2.0984366779465904,1.1234691378251893,0
smt_6212,6.014626878544966,286.65,2.0982476464486193,1.1233310041701474,0
smt_6044,6.01406383506517,286.65,2.098051224512531,1.1231877811022788,0
smt_6029,6.013514833193848,286.65,2.097859701096755,1.123048435968211,0
smt_19276,6.0129662122836605,286.65,2.0976683105821246,1.1229094903050039,0
smt_22896,6.0123397704530515,286.65,2.0974497716563936,1.1227512064975314,0
smt_6693,6.011916945533385,286.65,2.0973022660154843,1.122644596103681,0
smt_41231,6.011899804427466,286.65,2.097296286212268,1.122640277803218,0
smt_41232,6.011302682730496,286.65,2.0970879758348144,1.1224900380867315,0
rbt_605808,1.8934665966616193,90.3,2.0968622332908295,0.9852274345012738,0
smt_40865,6.003060399611372,286.65,2.094212593619875,1.120453516337052,0
smt_40864,6.002596177119457,286.65,2.0940506461257486,1.1203409148378005,0
smt_40863,6.0021252767333575,286.65,2.093886368998206,1.1202269271177292,0
smt_40862,6.001654558715866,286.65,2.093722155491319,1.120113219226382,0
rbt_1607326,1.8896435198078725,90.3,2.092628482622229,0.9839311108902593,0
smt_40375,3.414661792815019,163.8,2.0846531091666782,1.0378167331669632,0
smt_40374,3.4141111142119454,163.8,2.084316919543312,1.037488144696103,0
smt_40358,3.4135632512907574,163.8,2.083982448895456,1.0371619147777167,0
smt_40357,3.4129863884219342,163.8,2.0836302737618646,1.0368191519426777,0
smt_40356,3.4125005030176565,163.8,2.0833336404259195,1.0365310345930592,0
...